
     RDKit          3D

 58 60  0  0  0  0  0  0  0  0999 V2000
   -1.1233   -0.3209    1.2458 O   0  0  0  0  0  0  0  0  0  0  0  0
   -1.6545   -1.4180    1.2303 C   0  0  0  0  0  0  0  0  0  0  0  0
   -2.6477   -1.7779    0.3646 N   0  0  0  0  0  0  0  0  0  0  0  0
   -3.2656   -0.8084   -0.5334 C   0  0  0  0  0  0  0  0  0  0  0  0
   -3.8889   -1.5123   -1.7457 C   0  0  0  0  0  0  0  0  0  0  0  0
   -5.1659   -2.2782   -1.3995 C   0  0  0  0  0  0  0  0  0  0  0  0
   -6.1771   -1.3953   -0.6754 C   0  0  0  0  0  0  0  0  0  0  0  0
   -5.5681   -0.7297    0.5545 C   0  0  0  0  0  0  0  0  0  0  0  0
   -4.3033    0.0523    0.2022 C   0  0  0  0  0  0  0  0  0  0  0  0
   -1.3119   -2.4519    2.0815 N   0  0  0  0  0  0  0  0  0  0  0  0
   -0.1802   -2.3555    3.2936 S   0  0  0  0  0  0  0  0  0  0  0  0
   -0.0432   -3.7114    3.7888 O   0  0  0  0  0  0  0  0  0  0  0  0
    1.3211   -1.9531    2.4403 C   0  0  0  0  0  0  0  0  0  0  0  0
    1.7792   -0.6347    2.4258 C   0  0  0  0  0  0  0  0  0  0  0  0
    2.9680   -0.3268    1.7642 C   0  0  0  0  0  0  0  0  0  0  0  0
    3.7087   -1.3323    1.1249 C   0  0  0  0  0  0  0  0  0  0  0  0
    4.9697   -0.9834    0.3657 C   0  0  0  0  0  0  0  0  0  0  0  0
    4.7011   -0.7173   -1.1199 C   0  0  0  0  0  0  0  0  0  0  0  0
    3.8976    0.4676   -1.3398 N   0  0  0  0  0  0  0  0  0  0  0  0
    4.4350    1.7375   -1.3374 C   0  0  0  0  0  0  0  0  0  0  0  0
    3.4274    2.8343   -1.3402 C   0  0  0  0  0  0  0  0  0  0  0  0
    3.8390    4.1556   -1.3929 C   0  0  0  0  0  0  0  0  0  0  0  0
    2.9569    5.1885   -1.3847 N   0  0  0  0  0  0  0  0  0  0  0  0
    1.6450    4.8475   -1.3201 C   0  0  0  0  0  0  0  0  0  0  0  0
    1.2424    3.5143   -1.2641 C   0  0  0  0  0  0  0  0  0  0  0  0
    2.1126    2.4761   -1.2708 N   0  0  0  0  0  0  0  0  0  0  0  0
    0.6334    5.9503   -1.3100 C   0  0  0  0  0  0  0  0  0  0  0  0
    5.6370    1.9752   -1.3155 O   0  0  0  0  0  0  0  0  0  0  0  0
    3.2464   -2.6558    1.1644 C   0  0  0  0  0  0  0  0  0  0  0  0
    2.0584   -2.9697    1.8267 C   0  0  0  0  0  0  0  0  0  0  0  0
   -0.5309   -1.2773    4.1903 O   0  0  0  0  0  0  0  0  0  0  0  0
   -3.1598   -2.6176    0.5820 H   0  0  0  0  0  0  0  0  0  0  0  0
   -2.4658   -0.1486   -0.8925 H   0  0  0  0  0  0  0  0  0  0  0  0
   -3.1649   -2.1997   -2.1997 H   0  0  0  0  0  0  0  0  0  0  0  0
   -4.1297   -0.7581   -2.5060 H   0  0  0  0  0  0  0  0  0  0  0  0
   -4.9223   -3.1445   -0.7731 H   0  0  0  0  0  0  0  0  0  0  0  0
   -5.6156   -2.6722   -2.3181 H   0  0  0  0  0  0  0  0  0  0  0  0
   -7.0446   -1.9954   -0.3786 H   0  0  0  0  0  0  0  0  0  0  0  0
   -6.5440   -0.6231   -1.3629 H   0  0  0  0  0  0  0  0  0  0  0  0
   -5.3353   -1.4922    1.3077 H   0  0  0  0  0  0  0  0  0  0  0  0
   -6.3025   -0.0530    1.0060 H   0  0  0  0  0  0  0  0  0  0  0  0
   -3.8754    0.4793    1.1167 H   0  0  0  0  0  0  0  0  0  0  0  0
   -4.5806    0.8978   -0.4404 H   0  0  0  0  0  0  0  0  0  0  0  0
   -1.6748   -3.3858    1.9557 H   0  0  0  0  0  0  0  0  0  0  0  0
    1.2064    0.1582    2.9033 H   0  0  0  0  0  0  0  0  0  0  0  0
    3.3070    0.7074    1.7390 H   0  0  0  0  0  0  0  0  0  0  0  0
    5.6825   -1.8118    0.4624 H   0  0  0  0  0  0  0  0  0  0  0  0
    5.4499   -0.1140    0.8320 H   0  0  0  0  0  0  0  0  0  0  0  0
    4.1703   -1.5567   -1.5817 H   0  0  0  0  0  0  0  0  0  0  0  0
    5.6557   -0.5903   -1.6425 H   0  0  0  0  0  0  0  0  0  0  0  0
    2.8870    0.4121   -1.2248 H   0  0  0  0  0  0  0  0  0  0  0  0
    4.8881    4.4268   -1.4422 H   0  0  0  0  0  0  0  0  0  0  0  0
    0.1925    3.2431   -1.2116 H   0  0  0  0  0  0  0  0  0  0  0  0
    0.0411    5.9121   -0.3906 H   0  0  0  0  0  0  0  0  0  0  0  0
   -0.0344    5.8592   -2.1722 H   0  0  0  0  0  0  0  0  0  0  0  0
    1.1229    6.9282   -1.3598 H   0  0  0  0  0  0  0  0  0  0  0  0
    3.8109   -3.4494    0.6793 H   0  0  0  0  0  0  0  0  0  0  0  0
    1.7174   -4.0013    1.8591 H   0  0  0  0  0  0  0  0  0  0  0  0
  1  2  2  0
  2  3  1  0
  3  4  1  0
  4  5  1  0
  5  6  1  0
  6  7  1  0
  7  8  1  0
  8  9  1  0
  2 10  1  0
 10 11  1  0
 11 12  2  0
 11 13  1  0
 13 14  2  0
 14 15  1  0
 15 16  2  0
 16 17  1  0
 17 18  1  0
 18 19  1  0
 19 20  1  0
 20 21  1  0
 21 22  2  0
 22 23  1  0
 23 24  2  0
 24 25  1  0
 25 26  2  0
 24 27  1  0
 20 28  2  0
 16 29  1  0
 29 30  2  0
 11 31  2  0
  9  4  1  0
 30 13  1  0
 26 21  1  0
  3 32  1  0
  4 33  1  0
  5 34  1  0
  5 35  1  0
  6 36  1  0
  6 37  1  0
  7 38  1  0
  7 39  1  0
  8 40  1  0
  8 41  1  0
  9 42  1  0
  9 43  1  0
 10 44  1  0
 14 45  1  0
 15 46  1  0
 17 47  1  0
 17 48  1  0
 18 49  1  0
 18 50  1  0
 19 51  1  0
 22 52  1  0
 25 53  1  0
 27 54  1  0
 27 55  1  0
 27 56  1  0
 29 57  1  0
 30 58  1  0
M  END
$$$$
